Ucn3 and CRF-R2 in the medial amygdala regulate complex social dynamics
Higher frequencies of HLA DQB1*05:01 and anti-glycosphingolipid antibodies in a cluster of severe Guillain-Barr, syndrome
The activity of the glucocorticoid receptor is regulated by SUMO conjugation to FKBP51
Selective Mitochondrial Targeting Exerts Anxiolytic Effects In Vivo
Phenotypic Association Analyses With Copy Number Variation in Recurrent Depressive Disorder
Symptom characteristics of depressive episodes prior to the onset of mania or hypomania
Long-Term Outcomes of Brief, Intensive CBT for Specific Phobias: The Negative Impact of ADHD Symptoms
Epigenetic Signatures of Cigarette Smoking
Antidepressant treatment differentially affects the phenotype of high and low stress reactive mice
Parent Management Training and Collaborative & Proactive Solutions: A Randomized Control Trial for Oppositional Youth
Stress vulnerability and epigenetic variation of SKA2, potential causes and consequences
Freud and the human connectome [Letter to the editor]
The role of DNA methylation in the pathophysiology and treatment of bipolar disorder
Spontaneous Facial Mimicry is Modulated by Joint Attention and Autistic Traits
Novel genetic loci underlying human intracranial volume identified through genome-wide association
Peptide YY rescues early-life obesity-induced sleep disturbances by augmenting hypothalamic serotonin
HLA Genetic Risk Burden in Multiple Sclerosis
Association between genes on chromosome 19p13.2 and panic disorder
The emerging role of FKBP5 in the regulation of metabolism and body weight. [Editorial Comment]
Guidelines for the use and interpretation of assays for monitoring autophagy (3rd edition)
Genetic variants in RBFOX3 are associated with sleep latency
Hair cortisol in maltreated children and adolescents: Importance of developmental period and maltreatment characteristics
SLC6A15, a novel stress vulnerability candidate, modulates anxiety and depressive-like behavior: involvement of the glutamatergic system
The Brain as Immunoprecipitator of Serum Autoantibodies Against N-Methyl-D-Aspartate Receptor Subunit NR1
Association of the OPRM1 Variant rs1799971 (A118G) with Non-Specific Liability to Substance Dependence in a Collaborative de novo Meta-Analysis of European-Ancestry Cohorts
Rapporteur summaries of plenary, symposia, and oral sessions from the XXIIIrd World Congress of Psychiatric Genetics Meeting in Toronto, Canada, 16-20 October 2015
Activation of the mouse OR37 subsystem coincides with a reduction of novel environment-induced activity within the paraventricular nucleus of the hypothalamus
CRFR1 in AgRP Neurons Modulates Sympathetic Nervous System Activity to Adapt to Cold Stress and Fasting
Serum brain-derived neurotrophic factor (BDNF) is not regulated by testosterone in transmen
In vitro impact of pegvisomant on growth hormone-secreting pituitary adenoma cells
Social Bayes: Using Bayesian Modeling to Study Autistic Trait-Related Differences in Social Cognition
An epigenetic clock for gestational age at birth based on blood methylation data
Neurodevelopmental Expression Profile of Dimeric and Monomeric Group 1 mGluRs: Relevance to Schizophrenia Pathogenesis and Treatment
Glucose intolerance after chronic stress is related with downregulated PPAR-gamma in adipose tissue
RSUME is implicated in tumorigenesis and metastasis of pancreatic neuroendocrine tumors
Sphingomyelin Synthase 1 Is Essential for Male Fertility in Mice
Functional Impact of An ADHD-Associated DIRAS2 Promoter Polymorphism
Intergenerational effect of infant maltreatment on epigenetic and functional outcomes in rhesus monkeys
Psychotic experiences and incident suicidal ideation and behaviour: Disentangling the longitudinal associations from connected psychopathology
CREB1 Genotype Modulates Adaptive Reward-Based Decisions in Humans
Does Pregnenolone Enhance Exposure Therapy in Obsessive-Compulsive Disorder? - A Pilot, Interim Report of a Randomized, Placebo-Controlled, Double-Blind Study
Watching your pain site reduces pain intensity in chronic back pain patients
SECRETION OF INFLAMMASOME COMPLEXES HIGHLIGHTS UNCONVENTIONAL NEUTROPHIL ACTIVITY AND A POTENTIAL IMPACT IN CYSTIC FIBROSIS AIRWAY DISEASE
Heritable epigenetic patterns of stress-responsive genes in traumatized children
Towards a second-person neuropsychiatry
Posttraumatic Growth in Populations with Posttraumatic Stress Disorder-A Systematic Review on Growth-Related Psychological Constructs and Biological Variables
Stable isotope metabolic labeling suggests differential turnover of the DPYSL protein family
Metabotropic Glutamate Receptor 5 as a Point of Convergence for Models of Obsessive-Compulsive Disorder and Autism Spectrum Disorder
Current concepts in chronic inflammatory diseases: Interactions between microbes, cellular metabolism, and inflammation
Oxytocin receptor DNA methylation in postpartum depression
FKBP5 polymorphisms moderate the influence of adverse life events on the risk of anxiety and depressive disorders in preschool children
How do you make me feel better? Social cognitive emotion regulation and the default mode network
Replication of Epigenetic Postpartum Depression Biomarkers and Variation with Hormone Levels
Editorial Perspective: Psychological stress and epigenetic aging - what can we learn and how can we prevent?
Differential Patterns of Dysconnectivity in Mirror Neuron and Mentalizing Networks in Schizophrenia
The stress regulator FKBP51 drives chronic pain by modulating spinal glucocorticoid signaling
FTO gene variant modulates the neural correlates of visual food perception
Risk factors for fearful spells, panic attacks and panic disorder in a community cohort of adolescents and young adults
Differential Effects of PI3K and Dual PI3K/mTOR Inhibition in Rat Prolactin-Secreting Pituitary Tumors
Novel multiple sclerosis susceptibility loci implicated in epigenetic regulation
IMPACT OF SPECIFIC PHOBIA ON THE RISK OF ONSET OF MENTAL DISORDERS: A 10-YEAR PROSPECTIVE-LONGITUDINAL COMMUNITY STUDY OF ADOLESCENTS AND YOUNG ADULTS
White matter differences in major depression: meta-analytic findings from enigma-MDD DTI
Intra-and interscanner variability of magnetic resonance imaging based volumetry in multiple sclerosis
Epigenetic Programming of the HPA Axis by Early Life Adversity
IgE responses to exogenous and endogenous allergens in atopic dermatitis patients under long-term systemic cyclosporine A treatment
Super-Memorizers Are Not Super-Recognizers
Overshadowed by the amygdala: the bed nucleus of the stria terminalis emerges as key to psychiatric disorders
Sleep Deprivation and Advice Taking
Local Optogenetic Induction of Fast (20-40 Hz) Pyramidal-Interneuron Network Oscillations in the In Vitro and In Vivo CA1 Hippocampus: Modulation by CRF and Enforcement of Perirhinal Theta Activity
Azidobupramine, an Antidepressant-Derived Bifunctional Neurotransmitter Transporter Ligand Allowing Covalent Labeling and Attachment of Fluorophores
Motor Skills Enhance Procedural Memory Formation and Protect against Age-Related Decline
Amygdalar MicroRNA-15a Is Essential for Coping with Chronic Stress.
DNA methylation signatures of chronic low-grade inflammation are associated with complex diseases
Conflicting cerebrospinal fluid biomarkers and progression to dementia due to Alzheimer's disease
Proliferation rates and gene expression profiles in human lymphoblastoid cell lines from patients with depression characterized in response to antidepressant drug therapy
Mental Health in Offspring of Traumatized Refugees with and without Post-traumatic Stress Disorder
Evidence Mounting for Gene-by-Environment Interactions at the FKBP5 Locus Predicting Psychiatric Symptoms [commentary]
THE 26TH Danube Symposium of Psychiatry: Psychiatry - Ready for the Future? [Letter to Editor]
The importance of understanding the biological mechanisms of trauma [Editorial]
Heart rate variability separates between rapid eye-movement sleep and slow wave sleep in healthy young adults
FK506 binding protein 51 integrates pathways of adaptation: FKBP51 shapes the reactivity to environmental change
MODEL-FREE NOVELTY-BASED DIFFUSION MRI
Astrocytic GluN2A and GluN2B Oppose the Synaptotoxic Effects of Amyloid-beta(1-40) in Hippocampal Cells
Gene-based pleiotropy across migraine with aura and migraine without aura patient groups
Smoking Cessation Program for Inpatients with Substance Use Disorder: A Quasi-Randomized Controlled Trial of Feasibility and Efficacy
Neuroendocrine Disturbances One to Five or More Years after Traumatic Brain Injury and Aneurysmal Subarachnoid Hemorrhage: Data from the German Database on Hypopituitarism
The Impact of Environmental Stressors on DNA Methylation, Neurobehavioral Development, and Chronic Physical Aggression: Prospects for Early Protective Interventions
ABCB1 genotyping in the treatment of depression
Bias and Precision Analysis of Diffusional Kurtosis Imaging for Different Acquisition Schemes
A variation in the oxytocin receptor gene moderates the relationship between early maternal care in childhood and interleukin 6 (IL-6) concentrations during pregnancy
GWAS for executive function and processing speed suggests involvement of the CADM2 gene
Does low coping efficacy mediate the association between negative life events and incident psychopathology? A prospective-longitudinal community study among adolescents and young adults
Subcortical brain alterations in major depressive disorder: findings from the ENIGMA Major Depressive Disorder working group
Emerging Histopathological and Genetic Parameters of Pituitary Adenomas: Clinical Impact and Recommendation for Future WHO Classification
Desipramine targets astrocytes to attenuate synaptic plasticity via modulation of the ephrinA3/EphA4 signalling
Genetic predisposition for high stress reactivity amplifies effects of early-life adversity.
Time-dependent effects of dexamethasone plasma concentrations on glucocorticoid receptor challenge tests
Family functioning mediates the association between parental depression and low self-esteem in adolescents
Genetic associations at 53 loci highlight cell types and biological pathways relevant for kidney function
The Development of Neuroendocrine Disturbances over Time: Longitudinal Findings in Patients after Traumatic Brain Injury and Subarachnoid Hemorrhage
Genome-wide gene-based analysis suggests an association between Neuroligin 1 (NLGN1) and post-traumatic stress disorder
Dynamic Changes in DNA Methylation Occur during the First Year of Life in Preterm Infants
Exposure to environmental factors increases connectivity between symptom domains in the psychopathology network
The Relationship Between Plasma Cytokine Levels and Response to Selective Serotonin Reuptake Inhibitor Treatment in Children and Adolescents with Depression and/or Anxiety Disorders
q-Space Deep Learning: Twelve-Fold Shorter and Model-Free Diffusion MRI Scans
Candidate genes in panic disorder: meta-analyses of 23 common variants in major anxiogenic pathways
The hippocampus and exercise: histological correlates of MR-detected volume changes
CRHR1 genotype and sleep in healthy volunteers
Psychiatric governance, völkisch corporatism, and the German Research Institute of Psychiatry in Munich (1912-26). Part I
Fluoxetine Treatment Rescues Energy Metabolism Pathway Alterations in a Posttraumatic Stress Disorder Mouse Model.
Prioritizing individual genetic variants after kernel machine testing using variable selection
Strategic Decision-Making and Social Skills: Integrating Behavioral Economics and Social Cognition Research
Predictors of Quality of Life in Acromegaly: No Consensus on Biochemical Parameters
FAMILIAL HYPERCHOLESTEROLEMIA IN PRIMARY CARE IN GERMANY - DIABETES AND CARDIOVASCULAR RISK EVALUATION: TARGETS AND ESSENTIAL DATA FOR COMMITMENT OF TREATMENT (DETECT) STUDY
DNA Methylation Signatures of Early Childhood Malnutrition Associated With Impairments in Attention and Cognition
Ghrelin modulates encoding-related brain function without enhancing memory formation in humans
Restricted vs. unrestricted wheel running in mice: Effects on brain, behavior and endocannabinoids
Is insulin-like growth factor-I a good marker for treatment adherence in growth hormone deficiency in adulthood?
Fluoxetine treatment prevents the inflammatory response in a mouse model of posttraumatic stress disorder
Psychiatric governance, völkisch corporatism, and the German Research Institute of Psychiatry in Munich (1912-26). Part 2
Clinical Impact of the Current WHO Classification of Pituitary Adenomas
Spontaneous pupil dilations during the resting state are associated with activation of the salience network
Association of ABCB1 gene variants, plasma antidepressant concentration, and treatment response: Results from a randomized clinical study
Pharmacological modulation of astrocytes and the role of cell type-specific histone modifications for the treatment of mood disorders
Charting the landscape of priority problems in psychiatry, part 1: classification and diagnosis
Prenatal Exposure to Maternal Obesity Alters Anxiety and Stress Coping Behaviors in Aged Mice
Cross-Cancer Genome-Wide Analysis of Lung, Ovary, Breast, Prostate, and Colorectal Cancer Reveals Novel Pleiotropic Associations
Knockdown of corticotropin-releasing factor 1 receptors in the ventral tegmental area enhances conditioned fear
Charting the landscape of priority problems in psychiatry, part 2: pathogenesis and aetiology
Validation of non-REM sleep stage decoding from resting state fMRI using linear support vector machines
Differential Regulation of N-Methyl-D-Aspartate Receptor Subunits is An Early Event in the Actions of Soluble Amyloid-beta(1-40) Oligomers on Hippocampal Neurons
REM sleep deprivation: a cross talk between regulators of stress and REM sleep
Meta-analysis of 375,000 individuals identifies 38 susceptibility loci for migraine
Holocaust Exposure Induced Intergenerational Effects on FKBP5 Methylation
Genomics of PTSD
Neuronal Deletion of Kmt2a/Mll l Histone Methyltransferase in Ventral Striatum is Associated with Defective Spike-Timing-Dependent Striatal Synaptic Plasticity, Altered Response to Dopaminergic Drugs, and Increased Anxiety
Heritability and reliability of automatically segmented human hippocampal formation subregions
Genome-wide DNA methylation levels and altered cortisol stress reactivity following childhood trauma in humans
Investigating the effects of copy number variants on reading and language performance
Size matters; but so does what you do with it! Response
Corrigendum: Local Optogenetic Induction of Fast (20-40Hz) Pyramidal-Interneuron Network Oscillations in the In Vitro and In Vivo CA1 Hippocampus: Modulation by CRF and Enforcement of Perirhinal Theta Activity
No Reliable Association between Runs of Homozygosity and Schizophrenia in a Well-Powered Replication Study
Molecular evidence of synaptic pathology in the CA1 region in schizophrenia.
Auricular Acupuncture Versus Progressive Muscle Relaxation in Patients with Anxiety Disorders or Major Depressive Disorder: A Prospective Parallel Group Clinical Trial
Communicative interactions in point-light displays: Choosing among multiple response alternatives
Sustained glucocorticoid exposure recruits cortico-limbic CRH signaling to modulate endocannabinoid function
Region-specific roles of the corticotropin-releasing factor-urocortin system in stress
Prefrontal Cortex Corticotropin-Releasing Factor Receptor 1 Conveys Acute Stress-Induced Executive Dysfunction
Investigating the Impact of a Genome-Wide Supported Bipolar Risk Variant of MAD1L1 on the Human Reward System
Peripheral fibroblast metabolic pathway alterations in juvenile rhesus monkeys undergoing long-term fluoxetine administration.
Adrenocorticotropic hormone in serial cerebrospinal fluid in man - Subject to acute regulation by the hypothalamic-pituitary-adrenocortical system?
Look into my eyes: Investigating joint attention using interactive eye-tracking and fMRI in a developmental sample
Mapping CSF biomarker profiles onto NIA-AA guidelines for Alzheimer's disease
Rapid, Structure-Based Exploration of Pipecolic Acid Amides as Novel Selective Antagonists of the FK506-Binding Protein 51
Corticotropin-releasing hormone induces depression-like changes of sleep electroencephalogram in healthy women
Convergent Lines of Evidence Support LRP8 as a Susceptibility Gene for Psychosis
Sex differences in the hemispheric lateralization of sleep spindles in humans
Stable isotope metabolic labeling suggests differential turnover of the DPYSL protein family.
Prevalence, incidence, and natural course of anorexia and bulimia nervosa among adolescents and young adults
Beware of Your Cre-Ation: lacZ Expression Impairs Neuronal Integrity and Hippocampus-Dependent Memory
Serotonergic systems in the balance: CRHR1 and CRHR2 differentially control stress-induced serotonin synthesis
Gene-Stress-Epigenetic Regulation of FKBP5: Clinical and Translational Implications
Pharmacogenetics of citalopram-related side effects in children with depression and/or anxiety disorders
Immunization with a heat-killed preparation of the environmental bacterium Mycobacterium vaccae promotes stress resilience in mice
The Role of Genetics and Epigenetics in the Pathogenesis of Posttraumatic Stress Disorder
The role of specific microRNAs in regulating stress-linked behaviors
Neuroendocrine disturbances years after traumatic brain injury and subarachnoid haemorrhage-Is there a reason for screening of hypopituitarism years after injury?
Epigenetics and Neuroendocrinology Clinical Focus on Psychiatry, Volume 1 Foreword
Age-related cognitive decline coincides with accelerated volume loss of the dorsal but not ventral hippocampus in mice.
The FKBP5 polymorphism rs1360780 influences the effect of an algorithm-based antidepressant treatment and is associated with remission in patients with major depression
Sensory-Derived Glutamate Regulates Presynaptic Inhibitory Terminals in Mouse Spinal Cord
Influence of 25(OH)D levels and genetic variants on disease severity in MS.
Tau protein is essential for stress-induced brain pathology
Alterations in DNA Methylation and Hydroxymethylation Due to Parental Care in Rhesus Macaques
Transdiagnostic commonalities and differences in resting state functional connectivity of the default mode network in schizophrenia and major depression
Chronic Stress and Glucocorticoids: From Neuronal Plasticity to Neurodegeneration
Remote and reversible inhibition of neurons and circuits by small molecule induced potassium channel stabilization
Dnmt3a in the Medial Prefrontal Cortex Regulates Anxiety-Like Behavior in Adult Mice
Hypothalamic leptin action is mediated by histone deacetylase 5
Effect of MK-801 and Clozapine on the Proteome of Cultured Human Oligodendrocytes
Co-Expression of Wild-Type P2X7R with Gln460Arg Variant Alters Receptor Function
Interpersonal predictive coding, not action perception, is impaired in autism
Targeted bisulfite sequencing of the dynamic DNA methylome
The Future is The Past: Methylation QTLs in Schizophrenia
Purine and pyrimidine metabolism: Convergent evidence on chronic antidepressant treatment response in mice and humans
12-months metabolic changes among gender dysphoric individuals under cross-sex hormone treatment: a targeted metabolomics study
Genetically dissecting P2rx7 expression within the central nervous system using conditional humanized mice
Spermidine Suppresses Age-Associated Memory Impairment by Preventing Adverse Increase of Presynaptic Active Zone Size and Release
Investigating the role of cortisol and growth hormone in fatty liver development: fatty liver index in patients with pituitary adenomas
Different cAMP sources are critically involved in G protein-coupled receptor CRHR1 signaling